8
Frag_H = 4; Frag_connect = 1; Frag_adjacent = 2
C     -0.32879    0.88766   -0.84289
O     -1.11446    1.75505   -1.20095
C     -0.37634   -0.51454   -1.32024
H      0.69348    1.15140    0.05816
C     -1.29778   -0.90841   -2.20662
H     -2.03688   -0.21611   -2.60261
H     -1.33320   -1.93434   -2.55688
H      0.36459   -1.19515   -0.92026
