9
Frag_H = 4; Frag_connect = 1; Frag_adjacent = 2
C     -0.63000    0.69675   -0.98585
O     -1.57514    1.43390   -1.22148
O     -0.40272   -0.56579   -1.45898
H      0.44716    1.04508   -0.14006
C     -1.38162   -1.07261   -2.31264
C     -1.18685   -2.19689   -3.00399
H     -2.29988   -0.49959   -2.35992
H     -0.25577   -2.74831   -2.92870
H     -1.95784   -2.58427   -3.66118
