15
Frag_H = 5; Frag_connect = 1; Frag_adjacent = 3
S     -1.77560    1.18017    0.14365
O     -2.46144    2.20025   -0.62524
O     -1.37812   -0.07857   -0.45666
C     -0.34113    1.92644    0.86851
H     -2.69009    0.82093    1.28444
C     -0.41508    3.25135    1.30688
C      0.84650    1.19920    0.97754
H      0.66798    4.87998    2.21356
C      0.71090    3.84770    1.87397
C      1.96739    1.80335    1.54685
H      0.91181    0.17362    0.62072
C      1.89864    3.12380    1.99545
H     -1.33223    3.82634    1.19910
H      2.89849    1.24812    1.63486
H      2.77709    3.59350    2.43260
