16
Frag_H = 2; Frag_connect = 1; Frag_adjacent = 3
N     -3.56396    1.29665   -0.24665
H     -3.42584    0.44114   -0.76916
H     -4.24547    1.95343   -0.59354
C     -2.58954    1.61453    0.65825
O     -1.65517    0.84519    0.85037
C     -2.68533    2.92074    1.36908
C     -1.59095    4.58517    2.75949
C     -1.55772    3.37224    2.06886
C     -3.85388    3.69421    1.38208
H     -2.77993    6.29793    3.29826
H     -0.64678    2.77631    2.07901
C     -3.88265    4.90999    2.07259
H     -4.75906    3.36461    0.88377
C     -2.75282    5.35457    2.75806
H     -4.79150    5.50763    2.08304
H     -0.71161    4.92540    3.30009
