11
Frag_H = 2; Frag_connect = 1; Frag_adjacent = 3
O     -4.26443    1.38894    0.38375
H     -3.50660    0.62800    1.26519
C     -3.40165    1.70373   -0.59959
O     -2.24817    1.30919   -0.56411
C     -4.02770    2.54206   -1.67696
H     -5.03611    2.84169   -1.37149
C     -3.19578    3.78129   -1.94577
H     -4.12297    1.92856   -2.57843
H     -3.09587    4.38883   -1.03974
H     -2.18744    3.51631   -2.28113
H     -3.66365    4.39554   -2.72143
