15
Frag_H = 2; Frag_connect = 1; Frag_adjacent = 3
O     -4.29484    1.56409   -0.09854
H     -4.61047    1.15562    1.11670
C     -2.95450    1.45772   -0.13324
O     -2.32864    1.04651    0.82614
C     -0.39803    2.48559   -2.69919
H     -0.35307    1.81565   -0.65310
C     -0.98402    2.04813   -1.50952
C     -2.37542    1.91608   -1.41857
H      0.68228    2.59284   -2.76492
C     -3.17484    2.21532   -2.52888
H     -4.25535    2.11226   -2.47776
C     -2.58451    2.64846   -3.71785
H     -3.20576    2.87990   -4.57903
C     -1.19906    2.78549   -3.80129
H     -0.74130    3.12626   -4.72690
