11
Frag_H = 2; Frag_connect = 1; Frag_adjacent = 3
C     -2.61349    0.92355   -0.26221
H     -3.82594    0.31096   -0.73011
C     -1.90842    0.00389    0.75142
H     -1.96951    1.11227   -1.12436
H     -2.86823    1.88116    0.19792
H     -1.68318   -0.95470    0.27781
C     -0.60534    0.63746    1.27219
H     -2.57839   -0.19333    1.59180
H      0.08749    0.82620    0.44881
H     -0.81195    1.58414    1.77690
H     -0.11772   -0.03188    1.98438
