8
Frag_H = 2; Frag_connect = 1; Frag_adjacent = 3
C     -2.45312    0.98277   -0.19015
H     -3.67302    0.35153   -0.65308
C     -1.73585    0.08120    0.82677
H     -1.81018    1.16993   -1.05312
H     -2.70995    1.94161    0.26567
H     -1.47891   -0.87762    0.37102
H     -0.81659    0.55705    1.17551
H     -2.37868   -0.10594    1.68980
