10
Frag_H = 2; Frag_connect = 1; Frag_adjacent = 3
N      0.16626    0.50427   -0.27268
H      1.19346    1.16624    0.43787
C     -0.96931    0.29067    0.61432
C     -0.21662    1.31066   -1.42381
H      0.65008    1.44587   -2.07840
H     -0.99840    0.81751   -2.01056
H     -0.56786    2.30249   -1.12048
H     -1.77689   -0.24250    0.10229
H     -0.65695   -0.32361    1.46464
H     -1.35655    1.23695    1.00638
