16
Frag_H = 2; Frag_connect = 1; Frag_adjacent = 3
O     -3.19656    1.70210   -0.25841
H     -3.57078    2.34135    0.68420
C     -3.70587    0.38606   -0.08452
C     -3.23524   -0.52375   -1.18787
C     -2.59360   -2.74366   -1.94706
C     -3.09658   -0.06005   -2.50399
C     -2.99096   -1.87976   -0.92411
H     -3.36090    0.02074    0.88840
H     -4.79989    0.42724   -0.08445
C     -2.69937   -0.92387   -3.52639
H     -3.10527   -2.27289    0.08344
H     -3.29103    0.98566   -2.73455
C     -2.44680   -2.26521   -3.24739
H     -2.58728   -0.54760   -4.53969
H     -2.39977   -3.79058   -1.72902
H     -2.13629   -2.93692   -4.04306
