7
Frag_H = 2; Frag_connect = 1; Frag_adjacent = 3
O     -3.21461    1.83632   -0.05570
H     -3.39415    2.45009    0.95234
C     -3.78176    0.54867    0.13352
C     -3.57895   -0.26871   -1.12416
H     -4.27324    0.21058    1.02180
H     -3.07301    0.15898   -1.96440
H     -3.94152   -1.27422   -1.17301
