9
Frag_H = 4; Frag_connect = 1; Frag_adjacent = 2
C     -0.61205    0.51550   -0.98512
O     -1.63972    0.83240   -1.56416
N     -0.03996   -0.72946   -0.97982
H     -0.02774    1.23455   -0.38706
C     -0.64191   -1.85083   -1.65541
H     -1.17579   -2.45148   -0.91430
H     -1.33858   -1.52132   -2.43054
H      0.15453   -2.45080   -2.10267
H      0.77347   -0.88677   -0.39969
