8
Frag_H = 5; Frag_connect = 1; Frag_adjacent = 3
S     -2.24176    1.09254   -0.09194
O     -2.81845    2.19752   -0.83107
O     -1.85647   -0.14067   -0.74796
C     -0.84354    1.69969    0.80923
H     -3.24244    0.71630    0.91262
H     -1.15492    2.57122    1.38726
H     -0.48605    0.90750    1.46901
H     -0.06637    1.97680    0.09463
