18
Frag_H = 5; Frag_connect = 1; Frag_adjacent = 3
S     -1.86828    1.13436    0.12718
O     -2.55871    2.15106   -0.64220
O     -1.47992   -0.12976   -0.46760
C     -0.42648    1.88134    0.83546
H     -2.79997    0.77532    1.31406
C     -0.49574    3.20553    1.27249
C      0.75997    1.15366    0.93874
H      0.58147    4.83398    2.17265
C      0.63389    3.80039    1.83563
C      1.88569    1.75535    1.50403
H      0.82209    0.12764    0.58247
C      1.83050    3.07991    1.95864
H     -1.41222    3.78223    1.16892
H      2.80898    1.18452    1.58219
C      3.03702    3.73721    2.56318
H      3.89205    3.05409    2.59779
H      3.32750    4.61006    1.96969
H      2.81897    4.05411    3.58816
